network_B/new_load.txt
new Load.1 bus1=53.1.4 kV=0.23094010767585033 Vminpu=0.1 Vmaxpu=1.9 model=1 kW=1 pf=0.9 Phases=1
new Load.2 bus1=53.2.4 kV=0.23094010767585033 Vminpu=0.1 Vmaxpu=1.9 model=1 kW=1 pf=0.9 Phases=1
new Load.3 bus1=53.3.4 kV=0.23094010767585033 Vminpu=0.1 Vmaxpu=1.9 model=1 kW=1 pf=0.9 Phases=1
new Load.4 bus1=53.1.4 kV=0.23094010767585033 Vminpu=0.1 Vmaxpu=1.9 model=1 kW=1 pf=0.9 Phases=1
new Load.5 bus1=53.2.4 kV=0.23094010767585033 Vminpu=0.1 Vmaxpu=1.9 model=1 kW=1 pf=0.9 Phases=1
new Load.6 bus1=53.3.4 kV=0.23094010767585033 Vminpu=0.1 Vmaxpu=1.9 model=1 kW=1 pf=0.9 Phases=1
new Load.7 bus1=53.1.4 kV=0.23094010767585033 Vminpu=0.1 Vmaxpu=1.9 model=1 kW=1 pf=0.9 Phases=1
new Load.8 bus1=53.2.4 kV=0.23094010767585033 Vminpu=0.1 Vmaxpu=1.9 model=1 kW=1 pf=0.9 Phases=1
new Load.9 bus1=53.3.4 kV=0.23094010767585033 Vminpu=0.1 Vmaxpu=1.9 model=1 kW=1 pf=0.9 Phases=1
new Load.10 bus1=53.1.4 kV=0.23094010767585033 Vminpu=0.1 Vmaxpu=1.9 model=1 kW=1 pf=0.9 Phases=1
new Load.11 bus1=53.2.4 kV=0.23094010767585033 Vminpu=0.1 Vmaxpu=1.9 model=1 kW=1 pf=0.9 Phases=1
new Load.12 bus1=53.3.4 kV=0.23094010767585033 Vminpu=0.1 Vmaxpu=1.9 model=1 kW=1 pf=0.9 Phases=1
new Load.13 bus1=53.1.4 kV=0.23094010767585033 Vminpu=0.1 Vmaxpu=1.9 model=1 kW=1 pf=0.9 Phases=1
new Load.14 bus1=53.2.4 kV=0.23094010767585033 Vminpu=0.1 Vmaxpu=1.9 model=1 kW=1 pf=0.9 Phases=1
new Load.15 bus1=53.3.4 kV=0.23094010767585033 Vminpu=0.1 Vmaxpu=1.9 model=1 kW=1 pf=0.9 Phases=1
new Load.16 bus1=53.1.4 kV=0.23094010767585033 Vminpu=0.1 Vmaxpu=1.9 model=1 kW=1 pf=0.9 Phases=1
new Load.17 bus1=53.2.4 kV=0.23094010767585033 Vminpu=0.1 Vmaxpu=1.9 model=1 kW=1 pf=0.9 Phases=1
new Load.18 bus1=53.3.4 kV=0.23094010767585033 Vminpu=0.1 Vmaxpu=1.9 model=1 kW=1 pf=0.9 Phases=1
new Load.19 bus1=53.1.4 kV=0.23094010767585033 Vminpu=0.1 Vmaxpu=1.9 model=1 kW=1 pf=0.9 Phases=1
new Load.20 bus1=53.2.4 kV=0.23094010767585033 Vminpu=0.1 Vmaxpu=1.9 model=1 kW=1 pf=0.9 Phases=1
new Load.21 bus1=53.3.4 kV=0.23094010767585033 Vminpu=0.1 Vmaxpu=1.9 model=1 kW=1 pf=0.9 Phases=1
new Load.22 bus1=53.1.4 kV=0.23094010767585033 Vminpu=0.1 Vmaxpu=1.9 model=1 kW=1 pf=0.9 Phases=1
new Load.23 bus1=53.2.4 kV=0.23094010767585033 Vminpu=0.1 Vmaxpu=1.9 model=1 kW=1 pf=0.9 Phases=1
new Load.24 bus1=53.3.4 kV=0.23094010767585033 Vminpu=0.1 Vmaxpu=1.9 model=1 kW=1 pf=0.9 Phases=1
new Load.25 bus1=53.1.4 kV=0.23094010767585033 Vminpu=0.1 Vmaxpu=1.9 model=1 kW=1 pf=0.9 Phases=1
new Load.26 bus1=53.2.4 kV=0.23094010767585033 Vminpu=0.1 Vmaxpu=1.9 model=1 kW=1 pf=0.9 Phases=1
new Load.27 bus1=53.3.4 kV=0.23094010767585033 Vminpu=0.1 Vmaxpu=1.9 model=1 kW=1 pf=0.9 Phases=1
new Load.28 bus1=53.1.4 kV=0.23094010767585033 Vminpu=0.1 Vmaxpu=1.9 model=1 kW=1 pf=0.9 Phases=1
new Load.29 bus1=53.2.4 kV=0.23094010767585033 Vminpu=0.1 Vmaxpu=1.9 model=1 kW=1 pf=0.9 Phases=1
new Load.30 bus1=53.3.4 kV=0.23094010767585033 Vminpu=0.1 Vmaxpu=1.9 model=1 kW=1 pf=0.9 Phases=1
new Load.31 bus1=53.1.4 kV=0.23094010767585033 Vminpu=0.1 Vmaxpu=1.9 model=1 kW=1 pf=0.9 Phases=1
new Load.32 bus1=53.2.4 kV=0.23094010767585033 Vminpu=0.1 Vmaxpu=1.9 model=1 kW=1 pf=0.9 Phases=1
new Load.33 bus1=53.3.4 kV=0.23094010767585033 Vminpu=0.1 Vmaxpu=1.9 model=1 kW=1 pf=0.9 Phases=1
new Load.34 bus1=53.1.4 kV=0.23094010767585033 Vminpu=0.1 Vmaxpu=1.9 model=1 kW=1 pf=0.9 Phases=1
new Load.35 bus1=53.2.4 kV=0.23094010767585033 Vminpu=0.1 Vmaxpu=1.9 model=1 kW=1 pf=0.9 Phases=1
new Load.36 bus1=53.3.4 kV=0.23094010767585033 Vminpu=0.1 Vmaxpu=1.9 model=1 kW=1 pf=0.9 Phases=1
new Load.37 bus1=53.1.4 kV=0.23094010767585033 Vminpu=0.1 Vmaxpu=1.9 model=1 kW=1 pf=0.9 Phases=1
new Load.38 bus1=53.2.4 kV=0.23094010767585033 Vminpu=0.1 Vmaxpu=1.9 model=1 kW=1 pf=0.9 Phases=1
new Load.39 bus1=53.3.4 kV=0.23094010767585033 Vminpu=0.1 Vmaxpu=1.9 model=1 kW=1 pf=0.9 Phases=1
new Load.40 bus1=53.1.4 kV=0.23094010767585033 Vminpu=0.1 Vmaxpu=1.9 model=1 kW=1 pf=0.9 Phases=1
new Load.41 bus1=53.2.4 kV=0.23094010767585033 Vminpu=0.1 Vmaxpu=1.9 model=1 kW=1 pf=0.9 Phases=1
new Load.42 bus1=53.3.4 kV=0.23094010767585033 Vminpu=0.1 Vmaxpu=1.9 model=1 kW=1 pf=0.9 Phases=1
new Load.43 bus1=53.1.4 kV=0.23094010767585033 Vminpu=0.1 Vmaxpu=1.9 model=1 kW=1 pf=0.9 Phases=1
new Load.44 bus1=53.2.4 kV=0.23094010767585033 Vminpu=0.1 Vmaxpu=1.9 model=1 kW=1 pf=0.9 Phases=1
new Load.45 bus1=53.3.4 kV=0.23094010767585033 Vminpu=0.1 Vmaxpu=1.9 model=1 kW=1 pf=0.9 Phases=1
new Load.46 bus1=53.1.4 kV=0.23094010767585033 Vminpu=0.1 Vmaxpu=1.9 model=1 kW=1 pf=0.9 Phases=1
new Load.47 bus1=53.2.4 kV=0.23094010767585033 Vminpu=0.1 Vmaxpu=1.9 model=1 kW=1 pf=0.9 Phases=1
new Load.48 bus1=53.3.4 kV=0.23094010767585033 Vminpu=0.1 Vmaxpu=1.9 model=1 kW=1 pf=0.9 Phases=1
new Load.49 bus1=53.1.4 kV=0.23094010767585033 Vminpu=0.1 Vmaxpu=1.9 model=1 kW=1 pf=0.9 Phases=1
new Load.50 bus1=53.2.4 kV=0.23094010767585033 Vminpu=0.1 Vmaxpu=1.9 model=1 kW=1 pf=0.9 Phases=1
new Load.51 bus1=53.3.4 kV=0.23094010767585033 Vminpu=0.1 Vmaxpu=1.9 model=1 kW=1 pf=0.9 Phases=1
new Load.52 bus1=53.1.4 kV=0.23094010767585033 Vminpu=0.1 Vmaxpu=1.9 model=1 kW=1 pf=0.9 Phases=1
new Load.53 bus1=53.2.4 kV=0.23094010767585033 Vminpu=0.1 Vmaxpu=1.9 model=1 kW=1 pf=0.9 Phases=1
new Load.54 bus1=53.3.4 kV=0.23094010767585033 Vminpu=0.1 Vmaxpu=1.9 model=1 kW=1 pf=0.9 Phases=1
new Load.55 bus1=53.1.4 kV=0.23094010767585033 Vminpu=0.1 Vmaxpu=1.9 model=1 kW=1 pf=0.9 Phases=1
new Load.56 bus1=53.2.4 kV=0.23094010767585033 Vminpu=0.1 Vmaxpu=1.9 model=1 kW=1 pf=0.9 Phases=1
new Load.57 bus1=53.3.4 kV=0.23094010767585033 Vminpu=0.1 Vmaxpu=1.9 model=1 kW=1 pf=0.9 Phases=1
new Load.58 bus1=53.1.4 kV=0.23094010767585033 Vminpu=0.1 Vmaxpu=1.9 model=1 kW=1 pf=0.9 Phases=1
new Load.59 bus1=53.2.4 kV=0.23094010767585033 Vminpu=0.1 Vmaxpu=1.9 model=1 kW=1 pf=0.9 Phases=1
new Load.60 bus1=53.3.4 kV=0.23094010767585033 Vminpu=0.1 Vmaxpu=1.9 model=1 kW=1 pf=0.9 Phases=1
new Load.61 bus1=53.1.4 kV=0.23094010767585033 Vminpu=0.1 Vmaxpu=1.9 model=1 kW=1 pf=0.9 Phases=1
new Load.62 bus1=53.2.4 kV=0.23094010767585033 Vminpu=0.1 Vmaxpu=1.9 model=1 kW=1 pf=0.9 Phases=1
new Load.63 bus1=53.3.4 kV=0.23094010767585033 Vminpu=0.1 Vmaxpu=1.9 model=1 kW=1 pf=0.9 Phases=1
new Load.64 bus1=53.1.4 kV=0.23094010767585033 Vminpu=0.1 Vmaxpu=1.9 model=1 kW=1 pf=0.9 Phases=1
new Load.65 bus1=53.2.4 kV=0.23094010767585033 Vminpu=0.1 Vmaxpu=1.9 model=1 kW=1 pf=0.9 Phases=1
new Load.66 bus1=53.3.4 kV=0.23094010767585033 Vminpu=0.1 Vmaxpu=1.9 model=1 kW=1 pf=0.9 Phases=1
new Load.67 bus1=53.1.4 kV=0.23094010767585033 Vminpu=0.1 Vmaxpu=1.9 model=1 kW=1 pf=0.9 Phases=1
new Load.68 bus1=53.2.4 kV=0.23094010767585033 Vminpu=0.1 Vmaxpu=1.9 model=1 kW=1 pf=0.9 Phases=1
new Load.69 bus1=53.3.4 kV=0.23094010767585033 Vminpu=0.1 Vmaxpu=1.9 model=1 kW=1 pf=0.9 Phases=1
new Load.70 bus1=53.1.4 kV=0.23094010767585033 Vminpu=0.1 Vmaxpu=1.9 model=1 kW=1 pf=0.9 Phases=1
new Load.71 bus1=53.2.4 kV=0.23094010767585033 Vminpu=0.1 Vmaxpu=1.9 model=1 kW=1 pf=0.9 Phases=1
new Load.72 bus1=53.3.4 kV=0.23094010767585033 Vminpu=0.1 Vmaxpu=1.9 model=1 kW=1 pf=0.9 Phases=1
new Load.73 bus1=53.1.4 kV=0.23094010767585033 Vminpu=0.1 Vmaxpu=1.9 model=1 kW=1 pf=0.9 Phases=1
new Load.74 bus1=53.2.4 kV=0.23094010767585033 Vminpu=0.1 Vmaxpu=1.9 model=1 kW=1 pf=0.9 Phases=1
new Load.75 bus1=53.3.4 kV=0.23094010767585033 Vminpu=0.1 Vmaxpu=1.9 model=1 kW=1 pf=0.9 Phases=1
new Load.76 bus1=53.1.4 kV=0.23094010767585033 Vminpu=0.1 Vmaxpu=1.9 model=1 kW=1 pf=0.9 Phases=1
new Load.77 bus1=53.2.4 kV=0.23094010767585033 Vminpu=0.1 Vmaxpu=1.9 model=1 kW=1 pf=0.9 Phases=1
new Load.78 bus1=53.3.4 kV=0.23094010767585033 Vminpu=0.1 Vmaxpu=1.9 model=1 kW=1 pf=0.9 Phases=1
new Load.79 bus1=53.1.4 kV=0.23094010767585033 Vminpu=0.1 Vmaxpu=1.9 model=1 kW=1 pf=0.9 Phases=1
new Load.80 bus1=53.2.4 kV=0.23094010767585033 Vminpu=0.1 Vmaxpu=1.9 model=1 kW=1 pf=0.9 Phases=1
new Load.81 bus1=53.3.4 kV=0.23094010767585033 Vminpu=0.1 Vmaxpu=1.9 model=1 kW=1 pf=0.9 Phases=1
new Load.82 bus1=53.1.4 kV=0.23094010767585033 Vminpu=0.1 Vmaxpu=1.9 model=1 kW=1 pf=0.9 Phases=1
new Load.83 bus1=53.2.4 kV=0.23094010767585033 Vminpu=0.1 Vmaxpu=1.9 model=1 kW=1 pf=0.9 Phases=1
new Load.84 bus1=53.3.4 kV=0.23094010767585033 Vminpu=0.1 Vmaxpu=1.9 model=1 kW=1 pf=0.9 Phases=1
new Load.85 bus1=53.1.4 kV=0.23094010767585033 Vminpu=0.1 Vmaxpu=1.9 model=1 kW=1 pf=0.9 Phases=1
new Load.86 bus1=53.2.4 kV=0.23094010767585033 Vminpu=0.1 Vmaxpu=1.9 model=1 kW=1 pf=0.9 Phases=1
new Load.87 bus1=53.3.4 kV=0.23094010767585033 Vminpu=0.1 Vmaxpu=1.9 model=1 kW=1 pf=0.9 Phases=1
new Load.88 bus1=53.1.4 kV=0.23094010767585033 Vminpu=0.1 Vmaxpu=1.9 model=1 kW=1 pf=0.9 Phases=1
new Load.89 bus1=53.2.4 kV=0.23094010767585033 Vminpu=0.1 Vmaxpu=1.9 model=1 kW=1 pf=0.9 Phases=1
new Load.90 bus1=53.3.4 kV=0.23094010767585033 Vminpu=0.1 Vmaxpu=1.9 model=1 kW=1 pf=0.9 Phases=1
new Load.91 bus1=53.1.4 kV=0.23094010767585033 Vminpu=0.1 Vmaxpu=1.9 model=1 kW=1 pf=0.9 Phases=1
new Load.92 bus1=53.2.4 kV=0.23094010767585033 Vminpu=0.1 Vmaxpu=1.9 model=1 kW=1 pf=0.9 Phases=1
new Load.93 bus1=53.3.4 kV=0.23094010767585033 Vminpu=0.1 Vmaxpu=1.9 model=1 kW=1 pf=0.9 Phases=1
